MFSLSSTVQ -99.900002
FSLSSTVQP -99.900002
SLSSTVQPQ -99.900002
LSSTVQPQV -99.900002
SSTVQPQVT -99.900002
STVQPQVTV -99.900002
TVQPQVTVP -99.900002
VQPQVTVPL -99.900002
QPQVTVPLS -99.900002
PQVTVPLSH -99.900002
QVTVPLSHL -99.900002
VTVPLSHLI -99.900002
TVPLSHLIN -99.900002
VPLSHLINA -99.900002
PLSHLINAF -99.900002
LSHLINAFH -99.900002
SHLINAFHT -99.900002
HLINAFHTP -99.900002
LINAFHTPK -99.900002
INAFHTPKN -99.900002
NAFHTPKNT -99.900002
AFHTPKNTS -99.900002
FHTPKNTSV -99.900002
HTPKNTSVS -99.900002
TPKNTSVSL -99.900002
PKNTSVSLS -99.900002
KNTSVSLSG -99.900002
NTSVSLSGV -99.900002
TSVSLSGVS -99.900002
SVSLSGVSV -99.900002
VSLSGVSVS -99.900002
SLSGVSVSQ -99.900002
LSGVSVSQN -99.900002
SGVSVSQNQ -99.900002
GVSVSQNQH -99.900002
VSVSQNQHR -99.900002
SVSQNQHRD -99.900002
VSQNQHRDV -99.900002
SQNQHRDVV -99.900002
QNQHRDVVP -99.900002
NQHRDVVPE -99.900002
QHRDVVPEH -99.900002
HRDVVPEHE -99.900002
RDVVPEHEA -99.900002
DVVPEHEAP -99.900002
VVPEHEAPS -99.900002
VPEHEAPSS -99.900002
PEHEAPSSE -99.900002
EHEAPSSEC -99.900002
HEAPSSECM -99.900002
EAPSSECMF -99.900002
APSSECMFS -99.900002
PSSECMFSD -99.900002
SSECMFSDF -99.900002
SECMFSDFL -99.900002
ECMFSDFLT -99.900002
CMFSDFLTK -99.900002
MFSDFLTKL -99.900002
FSDFLTKLN -99.900002
SDFLTKLNI -99.900002
DFLTKLNIV -99.900002
FLTKLNIVS -99.900002
LTKLNIVSI -99.900002
TKLNIVSIG -99.900002
KLNIVSIGK -99.900002
LNIVSIGKG -99.900002
NIVSIGKGK -99.900002
IVSIGKGKI -99.900002
VSIGKGKIF -99.900002
SIGKGKIFE -99.900002
IGKGKIFEG -99.900002
GKGKIFEGY -99.900002
KGKIFEGYR -99.900002
GKIFEGYRS -99.900002
KIFEGYRSM -99.900002
IFEGYRSMF -99.900002
FEGYRSMFM -99.900002
EGYRSMFME -99.900002
GYRSMFMEP -99.900002
YRSMFMEPA -99.900002
RSMFMEPAK -99.900002
SMFMEPAKR -99.900002
MFMEPAKRM -99.900002
FMEPAKRMK -99.900002
MEPAKRMKK -99.900002
EPAKRMKKS -99.900002
PAKRMKKSL -99.900002
AKRMKKSLD -99.900002
KRMKKSLDT -99.900002
RMKKSLDTT -99.900002
MKKSLDTTD -99.900002
KKSLDTTDN -99.900002
KSLDTTDNW -99.900002
SLDTTDNWH -99.900002
LDTTDNWHI -99.900002
DTTDNWHIR -99.900002
TTDNWHIRP -99.900002
TDNWHIRPE -99.900002
DNWHIRPEP -99.900002
NWHIRPEPF -99.900002
WHIRPEPFS -99.900002
HIRPEPFSL -99.900002
IRPEPFSLS -99.900002
RPEPFSLSI -99.900002
PEPFSLSIP -99.900002
EPFSLSIPP -99.900002
PFSLSIPPS -99.900002
FSLSIPPSL -99.900002
SLSIPPSLN -99.900002
LSIPPSLNL -99.900002
SIPPSLNLR -99.900002
IPPSLNLRD -99.900002
PPSLNLRDL -99.900002
PSLNLRDLG -99.900002
SLNLRDLGL -99.900002
LNLRDLGLS -99.900002
NLRDLGLSE -99.900002
LRDLGLSEL -99.900002
RDLGLSELK -99.900002
DLGLSELKI -99.900002
LGLSELKIG -99.900002
GLSELKIGQ -99.900002
LSELKIGQI -99.900002
SELKIGQID -99.900002
ELKIGQIDQ -99.900002
LKIGQIDQL -99.900002
KIGQIDQLV -99.900002
IGQIDQLVE -99.900002
GQIDQLVEN -99.900002
QIDQLVENL -99.900002
IDQLVENLL -99.900002
DQLVENLLP -99.900002
QLVENLLPG -99.900002
LVENLLPGF -99.900002
VENLLPGFC -99.900002
ENLLPGFCK -99.900002
NLLPGFCKG -99.900002
LLPGFCKGK -99.900002
LPGFCKGKN -99.900002
PGFCKGKNI -99.900002
GFCKGKNIS -99.900002
FCKGKNISS -99.900002
CKGKNISSH -99.900002
KGKNISSHW -99.900002
GKNISSHWH -99.900002
KNISSHWHT -99.900002
NISSHWHTS -99.900002
ISSHWHTSH -99.900002
SSHWHTSHV -99.900002
SHWHTSHVS -99.900002
HWHTSHVSA -99.900002
WHTSHVSAQ -99.900002
HTSHVSAQS -99.900002
TSHVSAQSF -99.900002
SHVSAQSFF -99.900002
HVSAQSFFE -99.900002
VSAQSFFEN -99.900002
SAQSFFENK -99.900002
AQSFFENKY -99.900002
QSFFENKYG -99.900002
SFFENKYGN -99.900002
FFENKYGNL -99.900002
FENKYGNLD -99.900002
ENKYGNLDI -99.900002
NKYGNLDIF -99.900002
KYGNLDIFS -99.900002
YGNLDIFST -99.900002
GNLDIFSTL -99.900002
NLDIFSTLR -99.900002
LDIFSTLRS -99.900002
DIFSTLRSS -99.900002
IFSTLRSSC -99.900002
FSTLRSSCL -99.900002
STLRSSCLY -99.900002
TLRSSCLYR -99.900002
LRSSCLYRH -99.900002
RSSCLYRHH -99.900002
SSCLYRHHS -99.900002
SCLYRHHSR -99.900002
CLYRHHSRA -99.900002
LYRHHSRAL -99.900002
YRHHSRALQ -99.900002
RHHSRALQS -99.900002
HHSRALQSI -99.900002
HSRALQSIC -99.900002
SRALQSICS -99.900002
RALQSICSD -99.900002
ALQSICSDL -99.900002
LQSICSDLQ -99.900002
QSICSDLQY -99.900002
SICSDLQYW -99.900002
ICSDLQYWP -99.900002
CSDLQYWPV -99.900002
SDLQYWPVF -99.900002
DLQYWPVFI -99.900002
LQYWPVFIQ -99.900002
QYWPVFIQS -99.900002
YWPVFIQSR -99.900002
WPVFIQSRG -99.900002
PVFIQSRGF -99.900002
VFIQSRGFK -99.900002
FIQSRGFKT -99.900002
IQSRGFKTL -99.900002
QSRGFKTLK -99.900002
SRGFKTLKS -99.900002
RGFKTLKSR -99.900002
GFKTLKSRT -99.900002
FKTLKSRTR -99.900002
KTLKSRTRR -99.900002
TLKSRTRRL -99.900002
LKSRTRRLQ -99.900002
KSRTRRLQS -99.900002
SRTRRLQST -99.900002
RTRRLQSTS -99.900002
TRRLQSTSE -99.900002
RRLQSTSER -99.900002
RLQSTSERL -99.900002
LQSTSERLA -99.900002
QSTSERLAE -99.900002
STSERLAET -99.900002
TSERLAETQ -99.900002
SERLAETQN -99.900002
ERLAETQNI -99.900002
RLAETQNIA -99.900002
LAETQNIAP -99.900002
AETQNIAPS -99.900002
ETQNIAPSF -99.900002
TQNIAPSFV -99.900002
QNIAPSFVK -99.900002
NIAPSFVKG -99.900002
IAPSFVKGF -99.900002
APSFVKGFL -99.900002
PSFVKGFLL -99.900002
SFVKGFLLR -99.900002
FVKGFLLRD -99.900002
VKGFLLRDR -99.900002
KGFLLRDRG -99.900002
GFLLRDRGS -99.900002
FLLRDRGSD -99.900002
LLRDRGSDV -99.900002
LRDRGSDVE -99.900002
RDRGSDVES -99.900002
DRGSDVESL -99.900002
RGSDVESLD -99.900002
GSDVESLDK -99.900002
SDVESLDKL -99.900002
DVESLDKLM -99.900002
VESLDKLMK -99.900002
ESLDKLMKT -99.900002
SLDKLMKTK -99.900002
LDKLMKTKN -99.900002
DKLMKTKNI -99.900002
KLMKTKNIP -99.900002
LMKTKNIPE -99.900002
MKTKNIPEA -99.900002
KTKNIPEAH -99.900002
TKNIPEAHQ -99.900002
KNIPEAHQD -99.900002
NIPEAHQDA -99.900002
IPEAHQDAF -99.900002
PEAHQDAFK -99.900002
EAHQDAFKT -99.900002
AHQDAFKTG -99.900002
HQDAFKTGF -99.900002
QDAFKTGFA -99.900002
DAFKTGFAE -99.900002
AFKTGFAEG -99.900002
FKTGFAEGF -99.900002
KTGFAEGFL -99.900002
TGFAEGFLK -99.900002
GFAEGFLKA -99.900002
FAEGFLKAQ -99.900002
AEGFLKAQA -99.900002
EGFLKAQAL -99.900002
GFLKAQALT -99.900002
FLKAQALTQ -99.900002
LKAQALTQK -99.900002
KAQALTQKT -99.900002
AQALTQKTN -99.900002
QALTQKTND -99.900002
ALTQKTNDS -99.900002
LTQKTNDSL -99.900002
TQKTNDSLR -99.900002
QKTNDSLRR -99.900002
KTNDSLRRT -99.900002
TNDSLRRTR -99.900002
NDSLRRTRL -99.900002
DSLRRTRLI -99.900002
SLRRTRLIL -99.900002
LRRTRLILF -99.900002
RRTRLILFV -99.900002
RTRLILFVL -99.900002
TRLILFVLL -99.900002
RLILFVLLL -99.900002
LILFVLLLF -99.900002
ILFVLLLFG -99.900002
LFVLLLFGI -99.900002
FVLLLFGIY -99.900002
VLLLFGIYG -99.900002
LLLFGIYGL -99.900002
LLFGIYGLL -99.900002
LFGIYGLLK -99.900002
FGIYGLLKN -99.900002
GIYGLLKNP -99.900002
IYGLLKNPF -99.900002
YGLLKNPFL -99.900002
GLLKNPFLS -99.900002
LLKNPFLSV -99.900002
LKNPFLSVR -99.900002
KNPFLSVRF -99.900002
NPFLSVRFR -99.900002
PFLSVRFRT -99.900002
FLSVRFRTT -99.900002
LSVRFRTTT -99.900002
SVRFRTTTG -99.900002
VRFRTTTGL -99.900002
RFRTTTGLD -99.900002
FRTTTGLDS -99.900002
RTTTGLDSA -99.900002
TTTGLDSAV -99.900002
TTGLDSAVD -99.900002
TGLDSAVDP -99.900002
GLDSAVDPV -99.900002
LDSAVDPVQ -99.900002
DSAVDPVQM -99.900002
SAVDPVQMK -99.900002
AVDPVQMKN -99.900002
VDPVQMKNV -99.900002
DPVQMKNVT -99.900002
PVQMKNVTF -99.900002
VQMKNVTFE -99.900002
QMKNVTFEH -99.900002
MKNVTFEHV -99.900002
KNVTFEHVK -99.900002
NVTFEHVKG -99.900002
VTFEHVKGV -99.900002
TFEHVKGVE -99.900002
FEHVKGVEE -99.900002
EHVKGVEEA -99.900002
HVKGVEEAK -99.900002
VKGVEEAKQ -99.900002
KGVEEAKQE -99.900002
GVEEAKQEL -99.900002
VEEAKQELQ -99.900002
EEAKQELQE -99.900002
EAKQELQEV -99.900002
AKQELQEVV -99.900002
KQELQEVVE -99.900002
QELQEVVEF -99.900002
ELQEVVEFL -99.900002
LQEVVEFLK -99.900002
QEVVEFLKN -99.900002
EVVEFLKNP -99.900002
VVEFLKNPQ -99.900002
VEFLKNPQK -99.900002
EFLKNPQKF -99.900002
FLKNPQKFT -99.900002
LKNPQKFTI -99.900002
KNPQKFTIL -99.900002
NPQKFTILG -99.900002
PQKFTILGG -99.900002
QKFTILGGK -99.900002
KFTILGGKL -99.900002
FTILGGKLP -99.900002
TILGGKLPK -99.900002
ILGGKLPKG -99.900002
LGGKLPKGI -99.900002
GGKLPKGIL -99.900002
GKLPKGILL -99.900002
KLPKGILLV -99.900002
LPKGILLVG -99.900002
PKGILLVGP -99.900002
KGILLVGPP -99.900002
GILLVGPPG -99.900002
ILLVGPPGT -99.900002
LLVGPPGTG -99.900002
LVGPPGTGK -99.900002
VGPPGTGKT -99.900002
GPPGTGKTL -99.900002
PPGTGKTLL -99.900002
PGTGKTLLA -99.900002
GTGKTLLAR -99.900002
TGKTLLARA -99.900002
GKTLLARAV -99.900002
KTLLARAVA -99.900002
TLLARAVAG -99.900002
LLARAVAGE -99.900002
LARAVAGEA -99.900002
ARAVAGEAD -99.900002
RAVAGEADV -99.900002
AVAGEADVP -99.900002
VAGEADVPF -99.900002
AGEADVPFY -99.900002
GEADVPFYY -99.900002
EADVPFYYA -99.900002
ADVPFYYAS -99.900002
DVPFYYASG -99.900002
VPFYYASGS -99.900002
PFYYASGSE -99.900002
FYYASGSEF -99.900002
YYASGSEFD -99.900002
YASGSEFDE -99.900002
ASGSEFDEM -99.900002
SGSEFDEMF -99.900002
GSEFDEMFV -99.900002
SEFDEMFVG -99.900002
EFDEMFVGV -99.900002
FDEMFVGVG -99.900002
DEMFVGVGA -99.900002
EMFVGVGAS -99.900002
MFVGVGASR -99.900002
FVGVGASRI -99.900002
VGVGASRIR -99.900002
GVGASRIRN -99.900002
VGASRIRNL -99.900002
GASRIRNLF -99.900002
ASRIRNLFR -99.900002
SRIRNLFRE -99.900002
RIRNLFREA -99.900002
IRNLFREAK -99.900002
RNLFREAKA -99.900002
NLFREAKAN -99.900002
LFREAKANA -99.900002
FREAKANAP -99.900002
REAKANAPC -99.900002
EAKANAPCV -99.900002
AKANAPCVI -99.900002
KANAPCVIF -99.900002
ANAPCVIFI -99.900002
NAPCVIFID -99.900002
APCVIFIDE -99.900002
PCVIFIDEL -99.900002
CVIFIDELD -99.900002
VIFIDELDS -99.900002
IFIDELDSV -99.900002
FIDELDSVG -99.900002
IDELDSVGG -99.900002
DELDSVGGK -99.900002
ELDSVGGKR -99.900002
LDSVGGKRI -99.900002
DSVGGKRIE -99.900002
SVGGKRIES -99.900002
VGGKRIESP -99.900002
GGKRIESPM -99.900002
GKRIESPMH -99.900002
KRIESPMHP -99.900002
RIESPMHPY -99.900002
IESPMHPYS -99.900002
ESPMHPYSR -99.900002
SPMHPYSRQ -99.900002
PMHPYSRQT -99.900002
MHPYSRQTI -99.900002
HPYSRQTIN -99.900002
PYSRQTINQ -99.900002
YSRQTINQL -99.900002
SRQTINQLL -99.900002
RQTINQLLA -99.900002
QTINQLLAE -99.900002
TINQLLAEM -99.900002
INQLLAEMD -99.900002
NQLLAEMDG -99.900002
QLLAEMDGF -99.900002
LLAEMDGFK -99.900002
LAEMDGFKP -99.900002
AEMDGFKPN -99.900002
EMDGFKPNE -99.900002
MDGFKPNEG -99.900002
DGFKPNEGV -99.900002
GFKPNEGVI -99.900002
FKPNEGVII -99.900002
KPNEGVIII -99.900002
PNEGVIIIG -99.900002
NEGVIIIGA -99.900002
EGVIIIGAT -99.900002
GVIIIGATN -99.900002
VIIIGATNF -99.900002
IIIGATNFP -99.900002
IIGATNFPE -99.900002
IGATNFPEA -99.900002
GATNFPEAL -99.900002
ATNFPEALD -99.900002
TNFPEALDN -99.900002
NFPEALDNA -99.900002
FPEALDNAL -99.900002
PEALDNALI -99.900002
EALDNALIR -99.900002
ALDNALIRP -99.900002
LDNALIRPG -99.900002
DNALIRPGR -99.900002
NALIRPGRF -99.900002
ALIRPGRFD -99.900002
LIRPGRFDM -99.900002
IRPGRFDMQ -99.900002
RPGRFDMQV -99.900002
PGRFDMQVT -99.900002
GRFDMQVTV -99.900002
RFDMQVTVP -99.900002
FDMQVTVPR -99.900002
DMQVTVPRP -99.900002
MQVTVPRPD -99.900002
QVTVPRPDV -99.900002
VTVPRPDVK -99.900002
TVPRPDVKG -99.900002
VPRPDVKGR -99.900002
PRPDVKGRT -99.900002
RPDVKGRTE -99.900002
PDVKGRTEI -99.900002
DVKGRTEIL -99.900002
VKGRTEILK -99.900002
KGRTEILKW -99.900002
GRTEILKWY -99.900002
RTEILKWYL -99.900002
TEILKWYLN -99.900002
EILKWYLNK -99.900002
ILKWYLNKI -99.900002
LKWYLNKIK -99.900002
KWYLNKIKF -99.900002
WYLNKIKFD -99.900002
YLNKIKFDQ -99.900002
LNKIKFDQS -99.900002
NKIKFDQSV -99.900002
KIKFDQSVD -99.900002
IKFDQSVDP -99.900002
KFDQSVDPE -99.900002
FDQSVDPEI -99.900002
DQSVDPEII -99.900002
QSVDPEIIA -99.900002
SVDPEIIAR -99.900002
VDPEIIARG -99.900002
DPEIIARGT -99.900002
PEIIARGTV -99.900002
EIIARGTVG -99.900002
IIARGTVGF -99.900002
IARGTVGFS -99.900002
ARGTVGFSG -99.900002
RGTVGFSGA -99.900002
GTVGFSGAE -99.900002
TVGFSGAEL -99.900002
VGFSGAELE -99.900002
GFSGAELEN -99.900002
FSGAELENL -99.900002
SGAELENLV -99.900002
GAELENLVN -99.900002
AELENLVNQ -99.900002
ELENLVNQA -99.900002
LENLVNQAA -99.900002
ENLVNQAAL -99.900002
NLVNQAALK -99.900002
LVNQAALKA -99.900002
VNQAALKAA -99.900002
NQAALKAAV -99.900002
QAALKAAVD -99.900002
AALKAAVDG -99.900002
ALKAAVDGK -99.900002
LKAAVDGKE -99.900002
KAAVDGKEM -99.900002
AAVDGKEMV -99.900002
AVDGKEMVT -99.900002
VDGKEMVTM -99.900002
DGKEMVTMK -99.900002
GKEMVTMKE -99.900002
KEMVTMKEL -99.900002
EMVTMKELE -99.900002
MVTMKELEF -99.900002
VTMKELEFS -99.900002
TMKELEFSK -99.900002
MKELEFSKD -99.900002
KELEFSKDK -99.900002
ELEFSKDKI -99.900002
LEFSKDKIL -99.900002
EFSKDKILM -99.900002
FSKDKILMG -99.900002
SKDKILMGP -99.900002
KDKILMGPE -99.900002
DKILMGPER -99.900002
KILMGPERR -99.900002
ILMGPERRS -99.900002
LMGPERRSV -99.900002
MGPERRSVE -99.900002
GPERRSVEI -99.900002
PERRSVEID -99.900002
ERRSVEIDN -99.900002
RRSVEIDNK -99.900002
RSVEIDNKN -99.900002
SVEIDNKNK -99.900002
VEIDNKNKT -99.900002
EIDNKNKTI -99.900002
IDNKNKTIT -99.900002
DNKNKTITA -99.900002
NKNKTITAY -99.900002
KNKTITAYH -99.900002
NKTITAYHE -99.900002
KTITAYHES -99.900002
TITAYHESG -99.900002
ITAYHESGH -99.900002
TAYHESGHA -99.900002
AYHESGHAI -99.900002
YHESGHAII -99.900002
HESGHAIIA -99.900002
ESGHAIIAY -99.900002
SGHAIIAYY -99.900002
GHAIIAYYT -99.900002
HAIIAYYTK -99.900002
AIIAYYTKD -99.900002
IIAYYTKDA -99.900002
IAYYTKDAM -99.900002
AYYTKDAMP -99.900002
YYTKDAMPI -99.900002
YTKDAMPIN -99.900002
TKDAMPINK -99.900002
KDAMPINKA -99.900002
DAMPINKAT -99.900002
AMPINKATI -99.900002
MPINKATIM -99.900002
PINKATIMP -99.900002
INKATIMPR -99.900002
NKATIMPRG -99.900002
KATIMPRGP -99.900002
ATIMPRGPT -99.900002
TIMPRGPTL -99.900002
IMPRGPTLG -99.900002
MPRGPTLGH -99.900002
PRGPTLGHV -99.900002
RGPTLGHVS -99.900002
GPTLGHVSL -99.900002
PTLGHVSLL -99.900002
TLGHVSLLP -99.900002
LGHVSLLPE -99.900002
GHVSLLPEN -99.900002
HVSLLPEND -99.900002
VSLLPENDR -99.900002
SLLPENDRW -99.900002
LLPENDRWN -99.900002
LPENDRWNE -99.900002
PENDRWNET -99.900002
ENDRWNETR -99.900002
NDRWNETRA -99.900002
DRWNETRAQ -99.900002
RWNETRAQL -99.900002
WNETRAQLL -99.900002
NETRAQLLA -99.900002
ETRAQLLAQ -99.900002
TRAQLLAQM -99.900002
RAQLLAQMD -99.900002
AQLLAQMDV -99.900002
QLLAQMDVS -99.900002
LLAQMDVSM -99.900002
LAQMDVSMG -99.900002
AQMDVSMGG -99.900002
QMDVSMGGR -99.900002
MDVSMGGRV -99.900002
DVSMGGRVA -99.900002
VSMGGRVAE -99.900002
SMGGRVAEE -99.900002
MGGRVAEEL -99.900002
GGRVAEELI -99.900002
GRVAEELIF -99.900002
RVAEELIFG -99.900002
VAEELIFGT -99.900002
AEELIFGTD -99.900002
EELIFGTDH -99.900002
ELIFGTDHI -99.900002
LIFGTDHIT -99.900002
IFGTDHITT -99.900002
FGTDHITTG -99.900002
GTDHITTGA -99.900002
TDHITTGAS -99.900002
DHITTGASS -99.900002
HITTGASSD -99.900002
ITTGASSDF -99.900002
TTGASSDFD -99.900002
TGASSDFDN -99.900002
GASSDFDNA -99.900002
ASSDFDNAT -99.900002
SSDFDNATK -99.900002
SDFDNATKI -99.900002
DFDNATKIA -99.900002
FDNATKIAK -99.900002
DNATKIAKR -99.900002
NATKIAKRM -99.900002
ATKIAKRMV -99.900002
TKIAKRMVT -99.900002
KIAKRMVTK -99.900002
IAKRMVTKF -99.900002
AKRMVTKFG -99.900002
KRMVTKFGM -99.900002
RMVTKFGMS -99.900002
MVTKFGMSE -99.900002
VTKFGMSEK -99.900002
TKFGMSEKL -99.900002
KFGMSEKLG -99.900002
FGMSEKLGV -99.900002
GMSEKLGVM -99.900002
MSEKLGVMT -99.900002
SEKLGVMTY -99.900002
EKLGVMTYS -99.900002
KLGVMTYSD -99.900002
LGVMTYSDT -99.900002
GVMTYSDTG -99.900002
VMTYSDTGK -99.900002
MTYSDTGKL -99.900002
TYSDTGKLS -99.900002
YSDTGKLSP -99.900002
SDTGKLSPE -99.900002
DTGKLSPET -99.900002
TGKLSPETQ -99.900002
GKLSPETQS -99.900002
KLSPETQSA -99.900002
LSPETQSAI -99.900002
SPETQSAIE -99.900002
PETQSAIEQ -99.900002
ETQSAIEQE -99.900002
TQSAIEQEI -99.900002
QSAIEQEIR -99.900002
SAIEQEIRI -99.900002
AIEQEIRIL -99.900002
IEQEIRILL -99.900002
EQEIRILLR -99.900002
QEIRILLRD -99.900002
EIRILLRDS -99.900002
IRILLRDSY -99.900002
RILLRDSYE -99.900002
ILLRDSYER -99.900002
LLRDSYERA -99.900002
LRDSYERAK -99.900002
RDSYERAKH -99.900002
DSYERAKHI -99.900002
SYERAKHIL -99.900002
YERAKHILK -99.900002
ERAKHILKT -99.900002
RAKHILKTH -99.900002
AKHILKTHA -99.900002
KHILKTHAK -99.900002
HILKTHAKE -99.900002
ILKTHAKEH -99.900002
LKTHAKEHK -99.900002
KTHAKEHKN -99.900002
THAKEHKNL -99.900002
HAKEHKNLA -99.900002
AKEHKNLAE -99.900002
KEHKNLAEA -99.900002
EHKNLAEAL -99.900002
HKNLAEALL -99.900002
KNLAEALLT -99.900002
NLAEALLTY -99.900002
LAEALLTYE -99.900002
AEALLTYET -99.900002
EALLTYETL -99.900002
ALLTYETLD -99.900002
LLTYETLDA -99.900002
LTYETLDAK -99.900002
TYETLDAKE -99.900002
YETLDAKEI -99.900002
ETLDAKEIQ -99.900002
TLDAKEIQI -99.900002
LDAKEIQIV -99.900002
DAKEIQIVL -99.900002
AKEIQIVLE -99.900002
KEIQIVLEG -99.900002
EIQIVLEGK -99.900002
IQIVLEGKK -99.900002
QIVLEGKKL -99.900002
IVLEGKKLE -99.900002
VLEGKKLEV -99.900002
LEGKKLEVR -99.900002
